[Format]      =  4.0
[Frequency]   =  0
[Precision]   =  1e-008
[MinAngle]    =  30
[DoSmartMesh] =  0
[Depth]       =  1
[LengthUnits] =  inches
[ProblemType] =  planar
[Coordinates] =  cartesian
[ACSolver]    =  0
[PrevType]    =  0
[PrevSoln]    =  ""
[Comment]     =  "Add comments here."
[PointProps]   = 0
[BdryProps]   = 1
  <BeginBdry>
    <BdryName> = "Azero"
    <BdryType> = 0
    <A_0> = 0
    <A_1> = 0
    <A_2> = 0
    <Phi> = 0
    <c0> = 0
    <c0i> = 0
    <c1> = 0
    <c1i> = 0
    <Mu_ssd> = 0
    <Sigma_ssd> = 0
    <innerangle> = 0
    <outerangle> = 0
  <EndBdry>
[BlockProps]  = 3
  <BeginBlock>
    <BlockName> = "air"
    <Mu_x> = 1
    <Mu_y> = 1
    <H_c> = 0
    <H_cAngle> = 0
    <J_re> = 0
    <J_im> = 0
    <Sigma> = 0
    <d_lam> = 1
    <Phi_h> = 0
    <Phi_hx> = 0
    <Phi_hy> = 0
    <LamType> = 0
    <LamFill> = 1
    <NStrands> = 0
    <WireD> = 0
    <BHPoints> = 0
  <EndBlock>
  <BeginBlock>
    <BlockName> = "cu"
    <Mu_x> = 1
    <Mu_y> = 1
    <H_c> = 0
    <H_cAngle> = 0
    <J_re> = 0
    <J_im> = 0
    <Sigma> = 0
    <d_lam> = 1
    <Phi_h> = 0
    <Phi_hx> = 0
    <Phi_hy> = 0
    <LamType> = 0
    <LamFill> = 1
    <NStrands> = 0
    <WireD> = 0
    <BHPoints> = 0
  <EndBlock>
  <BeginBlock>
    <BlockName> = "steel"
    <Mu_x> = 1000
    <Mu_y> = 1000
    <H_c> = 0
    <H_cAngle> = 0
    <J_re> = 0
    <J_im> = 0
    <Sigma> = 0
    <d_lam> = 1
    <Phi_h> = 0
    <Phi_hx> = 0
    <Phi_hy> = 0
    <LamType> = 0
    <LamFill> = 1
    <NStrands> = 0
    <WireD> = 0
    <BHPoints> = 0
  <EndBlock>
[CircuitProps]  = 1
  <BeginCircuit>
    <CircuitName> = "Islot"
    <TotalAmps_re> = 4000
    <TotalAmps_im> = 0
    <CircuitType> = 0
  <EndCircuit>
[NumPoints] = 20
0	0	0	2
6	0	0	2
6	2	0	2
0	2	0	2
0	2.5	0	2
2	2.5	0	2
2	4.5	0	2
4	4.5	0	2
4	2.5	0	2
6	2.5	0	2
6	6.5	0	2
0	6.5	0	2
-1	-0.10000000000000001	0	1
7	-0.10000000000000001	0	1
7	6.5999999999999996	0	1
-1	6.5999999999999996	0	1
2.1000000000000001	2.5	0	3
3.8999999999999999	2.5	0	3
3.8999999999999999	4.4000000000000004	0	3
2.1000000000000001	4.4000000000000004	0	3
[NumSegments] = 20
3	0	0.40000000000000002	1	0	2
0	1	0.40000000000000002	1	0	2
1	2	0.40000000000000002	1	0	2
2	3	-1	0	0	2
11	4	0.40000000000000002	1	0	2
4	5	-1	0	0	0
5	6	-1	0	0	0
6	7	-1	0	0	0
7	8	-1	0	0	0
8	9	-1	0	0	0
9	10	0.40000000000000002	1	0	2
10	11	0.40000000000000002	1	0	2
15	12	-1	0	0	0
12	13	-1	0	0	0
13	14	-1	0	0	0
14	15	-1	0	0	1
19	16	-1	0	0	0
16	17	-1	0	0	0
17	18	-1	0	0	0
18	19	-1	0	0	3
[NumArcSegments] = 0
[NumHoles] = 0
[NumBlockLabels] = 4
3	1	3	0.40000000000000002	0	0	2	1	0
1	3.5	3	0.40000000000000002	0	0	2	1	0
-0.5	-0.050000000000000003	1	0.050000000000000003	0	0	1	1	0
3	3.4500000000000002	2	0.10000000000000001	1	0	3	1	0
