[Format]      =  4.0
[Frequency]   =  0
[Precision]   =  1e-008
[MinAngle]    =  30
[DoSmartMesh] =  0
[Depth]       =  37.5
[LengthUnits] =  millimeters
[ProblemType] =  planar
[Coordinates] =  cartesian
[ACSolver]    =  0
[PrevType]    =  0
[PrevSoln]    =  ""
[Comment]     =  "Add comments here."
[PointProps]   = 0
[BdryProps]   = 6
  <BeginBdry>
    <BdryName> = "rPA"
    <BdryType> = 5
    <A_0> = 0
    <A_1> = 0
    <A_2> = 0
    <Phi> = 0
    <c0> = 0
    <c0i> = 0
    <c1> = 0
    <c1i> = 0
    <Mu_ssd> = 0
    <Sigma_ssd> = 0
    <innerangle> = 0
    <outerangle> = 0
  <EndBdry>
  <BeginBdry>
    <BdryName> = "Azero"
    <BdryType> = 0
    <A_0> = 0
    <A_1> = 0
    <A_2> = 0
    <Phi> = 0
    <c0> = 0
    <c0i> = 0
    <c1> = 0
    <c1i> = 0
    <Mu_ssd> = 0
    <Sigma_ssd> = 0
    <innerangle> = 0
    <outerangle> = 0
  <EndBdry>
  <BeginBdry>
    <BdryName> = "sPA1"
    <BdryType> = 5
    <A_0> = 0
    <A_1> = 0
    <A_2> = 0
    <Phi> = 0
    <c0> = 0
    <c0i> = 0
    <c1> = 0
    <c1i> = 0
    <Mu_ssd> = 0
    <Sigma_ssd> = 0
    <innerangle> = 0
    <outerangle> = 0
  <EndBdry>
  <BeginBdry>
    <BdryName> = "gPA1"
    <BdryType> = 5
    <A_0> = 0
    <A_1> = 0
    <A_2> = 0
    <Phi> = 0
    <c0> = 0
    <c0i> = 0
    <c1> = 0
    <c1i> = 0
    <Mu_ssd> = 0
    <Sigma_ssd> = 0
    <innerangle> = 0
    <outerangle> = 0
  <EndBdry>
  <BeginBdry>
    <BdryName> = "gPA2"
    <BdryType> = 5
    <A_0> = 0
    <A_1> = 0
    <A_2> = 0
    <Phi> = 0
    <c0> = 0
    <c0i> = 0
    <c1> = 0
    <c1i> = 0
    <Mu_ssd> = 0
    <Sigma_ssd> = 0
    <innerangle> = 0
    <outerangle> = 0
  <EndBdry>
  <BeginBdry>
    <BdryName> = "gPA3"
    <BdryType> = 5
    <A_0> = 0
    <A_1> = 0
    <A_2> = 0
    <Phi> = 0
    <c0> = 0
    <c0i> = 0
    <c1> = 0
    <c1i> = 0
    <Mu_ssd> = 0
    <Sigma_ssd> = 0
    <innerangle> = 0
    <outerangle> = 0
  <EndBdry>
[BlockProps]  = 4
  <BeginBlock>
    <BlockName> = "Air"
    <Mu_x> = 1
    <Mu_y> = 1
    <H_c> = 0
    <H_cAngle> = 0
    <J_re> = 0
    <J_im> = 0
    <Sigma> = 0
    <d_lam> = 0
    <Phi_h> = 0
    <Phi_hx> = 0
    <Phi_hy> = 0
    <LamType> = 0
    <LamFill> = 1
    <NStrands> = 0
    <WireD> = 0
    <BHPoints> = 0
  <EndBlock>
  <BeginBlock>
    <BlockName> = "Cu"
    <Mu_x> = 1
    <Mu_y> = 1
    <H_c> = 0
    <H_cAngle> = 0
    <J_re> = 0
    <J_im> = 0
    <Sigma> = 41.640086411507319
    <d_lam> = 0
    <Phi_h> = 0
    <Phi_hx> = 0
    <Phi_hy> = 0
    <LamType> = 0
    <LamFill> = 1
    <NStrands> = 0
    <WireD> = 0
    <BHPoints> = 0
  <EndBlock>
  <BeginBlock>
    <BlockName> = "G48UH"
    <Mu_x> = 1.0309999999999999
    <Mu_y> = 1.0309999999999999
    <H_c> = 961499.62400044198
    <H_cAngle> = 0
    <J_re> = 0
    <J_im> = 0
    <Sigma> = 58
    <d_lam> = 0
    <Phi_h> = 0
    <Phi_hx> = 0
    <Phi_hy> = 0
    <LamType> = 0
    <LamFill> = 1
    <NStrands> = 0
    <WireD> = 0
    <BHPoints> = 0
  <EndBlock>
  <BeginBlock>
    <BlockName> = "LinearSteel"
    <Mu_x> = 7000
    <Mu_y> = 7000
    <H_c> = 0
    <H_cAngle> = 0
    <J_re> = 0
    <J_im> = 0
    <Sigma> = 0
    <d_lam> = 0.5
    <Phi_h> = 0
    <Phi_hx> = 0
    <Phi_hy> = 0
    <LamType> = 0
    <LamFill> = 1
    <NStrands> = 0
    <WireD> = 0
    <BHPoints> = 3
      0	0
      1	1000
      10	10000
  <EndBlock>
[CircuitProps]  = 6
  <BeginCircuit>
    <CircuitName> = "Islot1"
    <TotalAmps_re> = -7764.5699999999952
    <TotalAmps_im> = 0
    <CircuitType> = 0
  <EndCircuit>
  <BeginCircuit>
    <CircuitName> = "Islot2"
    <TotalAmps_re> = -7764.5699999999952
    <TotalAmps_im> = 0
    <CircuitType> = 0
  <EndCircuit>
  <BeginCircuit>
    <CircuitName> = "Islot3"
    <TotalAmps_re> = -21213.200000000001
    <TotalAmps_im> = 0
    <CircuitType> = 0
  <EndCircuit>
  <BeginCircuit>
    <CircuitName> = "Islot4"
    <TotalAmps_re> = -21213.200000000001
    <TotalAmps_im> = 0
    <CircuitType> = 0
  <EndCircuit>
  <BeginCircuit>
    <CircuitName> = "Islot5"
    <TotalAmps_re> = 28977.769999999982
    <TotalAmps_im> = 0
    <CircuitType> = 0
  <EndCircuit>
  <BeginCircuit>
    <CircuitName> = "Islot6"
    <TotalAmps_re> = 28977.769999999982
    <TotalAmps_im> = 0
    <CircuitType> = 0
  <EndCircuit>
[NumPoints] = 89
34.979184431192735	14.847782882592403	0	10
33.655313892811165	17.644258181526133	0	10
14.847782882592401	34.979184431192735	0	10
17.644258181526133	33.655313892811165	0	10
36.871237598487866	9.1930320327873734	0	10
36.030521710174135	12.074829410499779	0	10
9.1930320327873716	36.871237598487866	0	10
12.074829410499778	36.030521710174135	0	10
37.907433909873319	2.6507460022767608	0	10
37.578494990623881	5.6441752488433394	0	10
2.6507460022767675	37.907433909873319	0	10
5.6441752488433483	37.578494990623881	0	10
39	0	0	10
2.3880612583373389e-015	39	0	10
12.5	0	0	10
7.6540424946709576e-016	12.5	0	10
39.445791327589269	6.6354763612179841	0	1000
38.637033051562732	10.35276180410083	0	1000
39.999999999999993	0	0	1000
39.81909623733862	3.7999440576888865	0	1000
41.260135423903343	6.8743392929806788	0	1000
40.942022573804159	9.2906462824322595	0	1000
41.951553183751876	1.6225000000000005	0	1000
41.633440333652693	4.0388069894515812	0	1000
57.917120789225663	13.839110140693442	0	1000
59.338222618845812	12.973932959449694	0	1000
59.525468026299478	1.6224999999999996	0	1000
60.674222653422206	2.8260052022149962	0	1000
36.384320926117041	16.618700031751011	0	1000
34.641016151377542	20	0	1000
37.478795542681205	13.97640456876873	0	1000
38.075020470612699	17.319010712979125	0	1000
37.142360785343072	19.570650374235683	0	1000
40.102154772446482	12.425075588740288	0	1000
39.169495087176855	14.676715249996846	0	1000
52.361817482933688	28.357607795509473	0	1000
53.958420773844431	27.889719030365896	0	1000
57.077252987868	16.973539447001475	0	1000
57.875374683061708	18.433355779543195	0	1000
30.843319181463215	25.469386758820534	0	1000
28.284271247461906	28.284271247461895	0	1000
32.584376868428159	23.200396205587602	0	1000
32.295155794196177	26.583420173906493	0	1000
30.811508490014223	28.516946985063868	0	1000
35.51986078534307	22.380902809516186	0	1000
34.03621348116112	24.314429620673561	0	1000
43.238142847174544	40.943581342224185	0	1000
44.90144172361201	40.904866839302564	0	1000
50.7393174829337	31.167860230789987	0	1000
51.132415571629402	32.784503623056267	0	1000
23.200396205587616	32.584376868428151	0	1000
20.000000000000007	34.641016151377542	0	1000
25.469386758820548	30.843319181463212	0	1000
24.314429620673572	34.036213481161113	0	1000
22.380902809516197	35.519860785343063	0	1000
28.516946985063885	30.811508490014219	0	1000
26.583420173906507	32.29515579419617	0	1000
31.167860230789994	50.739317482933679	0	1000
32.784503623056324	51.13241557162938	0	1000
40.943581342224206	43.238142847174551	0	1000
40.904866839302606	44.90144172361196	0	1000
13.976404568768736	37.478795542681198	0	1000
10.352761804100835	38.637033051562732	0	1000
16.618700031751018	36.384320926117041	0	1000
14.67671524999685	39.169495087176848	0	1000
12.425075588740292	40.102154772446475	0	1000
19.57065037423569	37.142360785343072	0	1000
17.319010712979132	38.075020470612699	0	1000
16.973539447001482	57.077252987867986	0	1000
18.433355779543255	57.8753746830617	0	1000
28.357607795509495	52.361817482933695	0	1000
27.889719030365946	53.958420773844395	0	1000
3.7999440576888972	39.819096237338613	0	1000
8.8817841970012523e-015	40	0	1000
6.6354763612179939	39.445791327589269	0	1000
4.0388069894515919	41.633440333652693	0	1000
1.6225000000000094	41.951553183751869	0	1000
9.2906462824322702	40.942022573804167	0	1000
6.8743392929806886	41.260135423903343	0	1000
1.6225000000000165	59.525468026299457	0	1000
2.826005202215061	60.674222653422206	0	1000
13.839110140693462	57.917120789225677	0	1000
12.973932959449755	59.338222618845784	0	1000
75	0	0	1000
4.5924254968025744e-015	75	0	1000
39.509999999999998	0	0	0
2.4192897517155961e-015	39.509999999999998	0	0
39.490000000000002	0	0	0
2.4180651049164489e-015	39.490000000000002	0	0
[NumSegments] = 58
0	1	-1	0	0	10
2	3	-1	0	0	10
4	5	-1	0	0	10
6	7	-1	0	0	10
8	9	-1	0	0	10
10	11	-1	0	0	10
14	12	-1	1	0	10
15	13	-1	1	0	10
16	20	-1	0	0	1000
20	21	-1	0	0	1000
21	24	-1	0	0	1000
22	23	-1	0	0	1000
23	20	-1	0	0	1000
23	19	-1	0	0	1000
26	22	-1	0	0	1000
28	31	-1	0	0	1000
31	32	-1	0	0	1000
32	35	-1	0	0	1000
33	34	-1	0	0	1000
34	31	-1	0	0	1000
34	30	-1	0	0	1000
37	33	-1	0	0	1000
39	42	-1	0	0	1000
42	43	-1	0	0	1000
43	46	-1	0	0	1000
44	45	-1	0	0	1000
45	42	-1	0	0	1000
45	41	-1	0	0	1000
48	44	-1	0	0	1000
50	53	-1	0	0	1000
53	54	-1	0	0	1000
54	57	-1	0	0	1000
55	56	-1	0	0	1000
56	53	-1	0	0	1000
56	52	-1	0	0	1000
59	55	-1	0	0	1000
61	64	-1	0	0	1000
64	65	-1	0	0	1000
65	68	-1	0	0	1000
66	67	-1	0	0	1000
67	64	-1	0	0	1000
67	63	-1	0	0	1000
70	66	-1	0	0	1000
72	75	-1	0	0	1000
75	76	-1	0	0	1000
76	79	-1	0	0	1000
77	78	-1	0	0	1000
78	75	-1	0	0	1000
78	74	-1	0	0	1000
81	77	-1	0	0	1000
83	18	-1	3	0	1000
84	73	-1	3	0	1000
18	85	-1	4	1	0
73	86	-1	4	1	0
12	87	-1	5	1	0
13	88	-1	5	1	0
85	87	-1	6	1	0
86	88	-1	6	1	0
[NumArcSegments] = 45
2	0	115.04170412814868	2	0	0	10	2
3	1	109.37256779005199	2	0	0	10	2
6	4	118.70279698112998	2	0	0	10	2
7	5	118.12155147172997	2	0	0	10	2
10	8	112.02378288084662	2	0	0	10	2
11	9	113.07754650428501	2	0	0	10	2
12	13	90	1	0	0	10	1
14	15	90	10	2	0	10	5
16	17	5.4512393169058155	1	0	0	1000	1
18	19	5.4512393169058155	1	0	0	1000	1
19	16	4.0975213661883689	5	0	0	1000	5
25	24	92.666721190966214	10	0	0	1000	10
27	25	9.6665576180673529	10	0	0	1000	10
26	27	92.666721190966442	10	0	0	1000	10
28	29	5.4512393169058155	1	0	0	1000	1
17	30	5.4512393169058155	1	0	0	1000	1
30	28	4.0975213661883689	5	0	0	1000	5
36	35	92.666721190966214	10	0	0	1000	10
38	36	9.6665576180673529	10	0	0	1000	10
37	38	92.666721190966442	10	0	0	1000	10
39	40	5.4512393169058155	1	0	0	1000	1
29	41	5.4512393169058155	1	0	0	1000	1
41	39	4.0975213661883689	5	0	0	1000	5
47	46	92.666721190966214	10	0	0	1000	10
49	47	9.6665576180673529	10	0	0	1000	10
48	49	92.666721190966442	10	0	0	1000	10
50	51	5.4512393169058155	1	0	0	1000	1
40	52	5.4512393169058155	5	0	0	1000	5
52	50	4.0975213661883689	5	0	0	1000	5
58	57	92.666721190966214	10	0	0	1000	10
60	58	9.6665576180673529	10	0	0	1000	10
59	60	92.666721190966442	10	0	0	1000	10
61	62	5.4512393169058155	1	0	0	1000	1
51	63	5.4512393169058155	1	0	0	1000	1
63	61	4.0975213661883689	5	0	0	1000	5
69	68	92.666721190966214	10	0	0	1000	10
71	69	9.6665576180673529	10	0	0	1000	10
70	71	92.666721190966442	10	0	0	1000	10
72	73	5.4512393169058155	1	0	0	1000	1
62	74	5.4512393169058155	1	0	0	1000	1
74	72	4.0975213661883689	5	0	0	1000	5
80	79	92.666721190966214	10	0	0	1000	10
82	80	9.6665576180673529	10	0	0	1000	10
81	82	92.666721190966442	10	0	0	1000	10
83	84	90	5	2	0	1000	0.80000000000000004
[NumHoles] = 0
[NumBlockLabels] = 18
20.449528111914958	20.449528111914958	1	1	0	0	100	1	0
16.206887424795671	16.206887424795671	1	1	0	0	100	1	0
11.964246737676387	11.964246737676387	1	1	0	0	100	1	0
8.9272231124801635	8.9272231124801635	4	1	0	0	11	1	0
47.991337239130985	47.991337239130985	4	1	0	0	1001	1	0
49.939077667398827	6.5746043021239977	2	-1	1	0	1011	1	0
40.564966503109453	5.3404791546834103	1	1	0	0	2101	1	0
46.535812052593513	19.275764488229573	2	-1	2	0	1012	1	0
37.800531072699293	15.657492635217649	1	1	0	0	2102	1	0
39.961207750469519	30.663313179169251	2	-1	3	0	1013	1	0
32.460051918015893	24.907473867891799	1	1	0	0	2103	1	0
30.663313179169258	39.961207750469512	2	-1	4	0	1014	1	0
24.907473867891806	32.460051918015886	1	1	0	0	2104	1	0
19.275764488229573	46.535812052593513	2	-1	5	0	1015	1	0
15.65749263521765	37.800531072699293	1	1	0	0	2105	1	0
6.5746043021240048	49.939077667398827	2	-1	6	0	1016	1	0
5.3404791546834156	40.564966503109453	1	1	0	0	2106	1	0
39.759757768473747	0.13878830026929559	1	1	0	0	0	1	0
